Input Parameters:
   integrator           = md
   nsteps               = 5000000
   init_step            = 0
   ns_type              = Grid
   nstlist              = 5
   ndelta               = 2
   nstcomm              = 10
   comm_mode            = Linear
   nstlog               = 10000
   nstxout              = 10000
   nstvout              = 100000
   nstfout              = 0
   nstcalcenergy        = 5
   nstenergy            = 10000
   nstxtcout            = 0
   init_t               = 0
   delta_t              = 0.002
   xtcprec              = 1000
   nkx                  = 50
   nky                  = 54
   nkz                  = 120
   pme_order            = 4
   ewald_rtol           = 1e-05
   ewald_geometry       = 0
   epsilon_surface      = 0
   optimize_fft         = FALSE
   ePBC                 = xyz
   bPeriodicMols        = FALSE
   bContinuation        = TRUE
   bShakeSOR            = FALSE
   etc                  = V-rescale
   nsttcouple           = 5
   epc                  = Berendsen
   epctype              = Anisotropic
   nstpcouple           = 5
   tau_p                = 1
   ref_p (3x3):
      ref_p[    0]={ 1.00000e+00,  0.00000e+00,  0.00000e+00}
      ref_p[    1]={ 0.00000e+00,  1.00000e+00,  0.00000e+00}
      ref_p[    2]={ 0.00000e+00,  0.00000e+00,  0.00000e+00}
   compress (3x3):
      compress[    0]={ 4.50000e-05,  0.00000e+00,  0.00000e+00}
      compress[    1]={ 0.00000e+00,  4.50000e-05,  0.00000e+00}
      compress[    2]={ 0.00000e+00,  0.00000e+00,  0.00000e+00}
   refcoord_scaling     = No
   posres_com (3):
      posres_com[0]= 0.00000e+00
      posres_com[1]= 0.00000e+00
      posres_com[2]= 0.00000e+00
   posres_comB (3):
      posres_comB[0]= 0.00000e+00
      posres_comB[1]= 0.00000e+00
      posres_comB[2]= 0.00000e+00
   andersen_seed        = 815131
   rlist                = 1
   rlistlong            = 1
   rtpi                 = 0.05
   coulombtype          = PME
   rcoulomb_switch      = 0
   rcoulomb             = 1
   vdwtype              = Cut-off
   rvdw_switch          = 0
   rvdw                 = 1
   epsilon_r            = 1
   epsilon_rf           = 1
   tabext               = 1
   implicit_solvent     = No
   gb_algorithm         = Still
   gb_epsilon_solvent   = 80
   nstgbradii           = 1
   rgbradii             = 1
   gb_saltconc          = 0
   gb_obc_alpha         = 1
   gb_obc_beta          = 0.8
   gb_obc_gamma         = 4.85
   gb_dielectric_offset = 0.009
   sa_algorithm         = No
   sa_surface_tension   = 2.092
   DispCorr             = No
   free_energy          = no
   init_lambda          = 0
   delta_lambda         = 0
   n_foreign_lambda     = 0
   sc_alpha             = 0
   sc_power             = 0
   sc_sigma             = 0.3
   sc_sigma_min         = 0.3
   nstdhdl              = 10
   separate_dhdl_file   = yes
   dhdl_derivatives     = yes
   dh_hist_size         = 0
   dh_hist_spacing      = 0.1
   nwall                = 0
   wall_type            = 9-3
   wall_atomtype[0]     = -1
   wall_atomtype[1]     = -1
   wall_density[0]      = 0
   wall_density[1]      = 0
   wall_ewald_zfac      = 3
   pull                 = umbrella
   pull_geometry        = direction_periodic
   pull_dim (3):
      pull_dim[0]=0
      pull_dim[1]=0
      pull_dim[2]=1
   pull_r1              = 1
   pull_r0              = 1.5
   pull_constr_tol      = 1e-06
   pull_nstxout         = 10
   pull_nstfout         = 50
   pull_ngrp            = 2
   pull_group 0:
     atom (3349):
        atom[0,...,3348] = {0,...,3348}
     weight: not available
     pbcatom              = 1674
     vec (3):
        vec[0]= 0.00000e+00
        vec[1]= 0.00000e+00
        vec[2]= 0.00000e+00
     init (3):
        init[0]= 0.00000e+00
        init[1]= 0.00000e+00
        init[2]= 0.00000e+00
     rate                 = 0
     k                    = 0
     kB                   = 0
   pull_group 1:
     atom (1):
        atom[0]=3341
     weight: not available
     pbcatom              = -1
     vec (3):
        vec[0]= 0.00000e+00
        vec[1]= 0.00000e+00
        vec[2]=-1.00000e+00
     init (3):
        init[0]= 1.08045e+00
        init[1]= 0.00000e+00
        init[2]= 0.00000e+00
     rate                 = 0.0008
     k                    = 500
     kB                   = 500
   pull_group 2:
     atom (1):
        atom[0]=4
     weight: not available
     pbcatom              = -1
     vec (3):
        vec[0]= 0.00000e+00
        vec[1]= 0.00000e+00
        vec[2]= 1.00000e+00
     init (3):
        init[0]= 2.88177e+00
        init[1]= 0.00000e+00
        init[2]= 0.00000e+00
     rate                 = 0.0008
     k                    = 500
     kB                   = 500
   disre                = No
   disre_weighting      = Conservative
   disre_mixed          = FALSE
   dr_fc                = 1000
   dr_tau               = 0
   nstdisreout          = 100
   orires_fc            = 0
   orires_tau           = 0
   nstorireout          = 100
   dihre-fc             = 1000
   em_stepsize          = 0.01
   em_tol               = 10
   niter                = 20
   fc_stepsize          = 0
   nstcgsteep           = 1000
   nbfgscorr            = 10
   ConstAlg             = Lincs
   shake_tol            = 0.0001
   lincs_order          = 4
   lincs_warnangle      = 30
   lincs_iter           = 1
   bd_fric              = 0
   ld_seed              = 1993
   cos_accel            = 0
   deform (3x3):
      deform[    0]={ 0.00000e+00,  0.00000e+00,  0.00000e+00}
      deform[    1]={ 0.00000e+00,  0.00000e+00,  0.00000e+00}
      deform[    2]={ 0.00000e+00,  0.00000e+00,  0.00000e+00}
   userint1             = 0
   userint2             = 0
   userint3             = 0
   userint4             = 0
   userreal1            = 0
   userreal2            = 0
   userreal3            = 0
   userreal4            = 0
grpopts:
   nrdf:     6648.92      232089
   ref_t:         300         300
   tau_t:         0.1         0.1
anneal:          No          No
ann_npoints:           0           0
   acc:	           0           0           0
   nfreeze:           N           N           N
   energygrp_flags[  0]: 0
   efield-x:
      n = 0
   efield-xt:
      n = 0
   efield-y:
      n = 0
   efield-yt:
      n = 0
   efield-z:
      n = 0
   efield-zt:
      n = 0
   bQMMM                = FALSE
   QMconstraints        = 0
   QMMMscheme           = 0
   scalefactor          = 1
qm_opts:
   ngQM                 = 0

Initializing Domain Decomposition on 8 nodes
Dynamic load balancing: yes
Will sort the charge groups at every domain (re)decomposition
Initial maximum inter charge-group distances:
    two-body bonded interactions: 0.593 nm, LJ-14, atoms 800 808
  multi-body bonded interactions: 0.593 nm, Proper Dih., atoms 800 808
Minimum cell size due to bonded interactions: 0.652 nm
Maximum distance for 5 constraints, at 120 deg. angles, all-trans: 0.820 nm
Estimated maximum distance required for P-LINCS: 0.820 nm
This distance will limit the DD cell size, you can override this with -rcon
Using 0 separate PME nodes
Scaling the initial minimum size with 1/0.8 (option -dds) = 1.25
Optimizing the DD grid for 8 cells with a minimum initial size of 1.025 nm
The maximum allowed number of cells is: X 7 Y 8 Z 18
Domain decomposition grid 1 x 8 x 1, separate PME nodes 0
PME domain decomposition: 1 x 8 x 1
Domain decomposition nodeid 0, coordinates 0 0 0

Table routines are used for coulomb: TRUE
Table routines are used for vdw:     FALSE
Will do PME sum in reciprocal space.

Will do ordinary reciprocal space Ewald sum.
Using a Gaussian width (1/beta) of 0.320163 nm for Ewald
Cut-off's:   NS: 1   Coulomb: 1   LJ: 1
System total charge: 0.000
Generated table with 1000 data points for Ewald.
Tabscale = 500 points/nm
Generated table with 1000 data points for LJ6.
Tabscale = 500 points/nm
Generated table with 1000 data points for LJ12.
Tabscale = 500 points/nm
Generated table with 1000 data points for 1-4 COUL.
Tabscale = 500 points/nm
Generated table with 1000 data points for 1-4 LJ6.
Tabscale = 500 points/nm
Generated table with 1000 data points for 1-4 LJ12.
Tabscale = 500 points/nm

Enabling SPC-like water optimization for 38618 molecules.

Configuring nonbonded kernels...
Configuring standard C nonbonded kernels...
Testing x86_64 SSE2 support... present.

Will apply umbrella COM pulling in geometry 'direction_periodic'
between a reference group and 2 groups
Cosine weighting is used for groupd 1
Cosine weighting is used for groupd 2

Pull group 0:  3349 atoms, mass 37115.041
Pull group 1:     1 atoms, mass    13.019
Pull group 2:     1 atoms, mass    13.019

Initializing Parallel LINear Constraint Solver

The number of constraints is 3398
There are inter charge-group constraints,
will communicate selected coordinates each lincs iteration

Linking all bonded interactions to atoms
There are 11424 inter charge-group exclusions,
will use an extra communication step for exclusion forces for PME

The maximum number of communication pulses is: Y 2
The minimum size for domain decomposition cells is 0.825 nm
The requested allowed shrink of DD cells (option -dds) is: 0.80
The allowed shrink of domain decomposition cells is: Y 0.78
The maximum allowed distance for charge groups involved in interactions is:
                 non-bonded interactions           1.000 nm
            two-body bonded interactions  (-rdd)   1.000 nm
          multi-body bonded interactions  (-rdd)   0.825 nm
  atoms separated by up to 5 constraints  (-rcon)  0.825 nm

Making 1D domain decomposition grid 1 x 8 x 1, home cell index 0 0 0

Center of mass motion removal mode is Linear
We have the following groups for center of mass motion removal:
  0:  rest

There are: 119331 Atoms
Charge group distribution at step 0: 5034 5045 5013 5001 5021 5017 5023 4997
Grid: 12 x 4 x 28 cells
Initial temperature: 299.333 K

Started mdrun on node 0 Wed Apr 27 16:24:44 2011

           Step           Time         Lambda
              0        0.00000        0.00000

   Energies (kJ/mol)
       G96Angle    Proper Dih.  Improper Dih.          LJ-14     Coulomb-14
    5.25949e+03    2.33669e+03    1.63649e+03    9.81861e+02    3.58922e+04
        LJ (SR)   Coulomb (SR)   Coul. recip.   COM Pull En.      Potential
    2.64982e+05   -1.78368e+06   -2.20625e+05    1.10020e-12   -1.69322e+06
    Kinetic En.   Total Energy    Temperature Pressure (bar)   Constr. rmsd
    2.97022e+05   -1.39619e+06    2.99268e+02    2.12515e+01    2.03670e-05

	<====  A V E R A G E S  ====>

	Statistics over 5000001 steps using 1000001 frames

   Energies (kJ/mol)
       G96Angle    Proper Dih.  Improper Dih.          LJ-14     Coulomb-14
    5.31978e+03    2.34325e+03    1.68267e+03    9.26453e+02    3.56807e+04
        LJ (SR)   Coulomb (SR)   Coul. recip.   COM Pull En.      Potential
    2.64598e+05   -1.78166e+06   -2.20686e+05    4.66616e+01   -1.69175e+06
    Kinetic En.   Total Energy    Temperature Pressure (bar)   Constr. rmsd
    2.97747e+05   -1.39400e+06    2.99999e+02   -6.03718e+00    0.00000e+00

          Box-X          Box-Y          Box-Z
    7.26271e+00    9.10259e+00    1.88100e+01

   Total Virial (kJ/mol)
    9.92154e+04    2.23347e+01   -3.41896e+00
    2.16854e+01    9.91632e+04   -3.47883e+01
   -4.14067e+00   -3.35807e+01    1.00046e+05

   Pressure (bar)
   -2.91108e-02   -1.87031e-01   -1.97370e-01
   -1.69661e-01    2.03424e+00   -1.94530e-02
   -1.78044e-01   -5.17475e-02   -2.01167e+01

   Total Dipole (D)
   -2.58353e+02   -4.05334e+02    4.96307e+02

      T-Protein  T-non-Protein
    2.99843e+02    3.00003e+02
